/*--------------------------------*- C++ -*----------------------------------*\
| =========                 |                                                 |
| \\      /  F ield         | OpenFOAM: The Open Source CFD Toolbox           |
|  \\    /   O peration     | Version:  4.x                                   |
|   \\  /    A nd           | Web:      www.OpenFOAM.org                      |
|    \\/     M anipulation  |                                                 |
\*---------------------------------------------------------------------------*/
FoamFile
{
    version     2.0;
    format      ascii;
    class       dictionary;
    object      controlDict;
}
// * * * * * * * * * * * * * * * * * * * * * * * * * * * * * * * * * * * * * //

application     simpleFoam;

startFrom       startTime;

startTime       0;

stopAt          endTime;

endTime         1000;

deltaT          1;

writeControl    runTime;

writeInterval   100;

purgeWrite      0;

writeFormat     ascii;

writePrecision  8;

writeCompression off;

timeFormat      general;

timePrecision   6;

runTimeModifiable true;

// ************************************************************************* //

functions
{

minmaxdomain
{
    type fieldMinMax;

    libs ("libfieldFunctionObjects.so");

    enabled true; //true or false

    mode component;

    writeControl timeStep;
    writeInterval 1;

    log true;

    fields (p U);
}

inMassFlow
{
    type            surfaceRegion;
    libs ("libfieldFunctionObjects.so");
    enabled         true;

    //writeControl     outputTime;
    writeControl   timeStep;
    writeInterval  1;

    log             true;

    writeFields     false;

    regionType          patch;
    name      inlet;

    operation       sum;

    fields
    (
        phi
    );
}

outMassFlow
{
    type            surfaceRegion;
    libs ("libfieldFunctionObjects.so");
    enabled         true;

    //writeControl     outputTime;
    writeControl   timeStep;
    writeInterval  1;

    log             true;

    writeFields     false;

    regionType          patch;
    name      outlet;

    operation       sum;

    fields
    (
        phi
    );
}

};
